Circuit: * /Users/sfujita/git-repo/EXCISS/contributors/shintaro/pwm_rc_filter_v2/pwm_rc_filter.asc

Limiting rise time of source v1 to 0.0001
Limiting fall time of source v1 to 0.0001
WARNING: Less than two connections to node N002.  This node is used by R1.
.OP point found by inspection.

Date: Tue Sep 19 19:43:08 2017
Total elapsed time: 0.025 seconds.

tnom = 27
temp = 27
method = modified trap
totiter = 5110
traniter = 5110
tranpoints = 2556
accept = 2284
rejected = 272
matrix size = 3
fillins = 0
solver = Normal
Matrix Compiler1:       5 opcodes  0.0/[0.0]/0.1
Matrix Compiler2:      15 opcodes

