Circuit: * /Users/sfujita/git-repo/EXCISS/contributors/shintaro/pwm_rc_filter/pwm_rc_filter.asc

Limiting rise time of source v1 to 0.0001
Limiting fall time of source v1 to 0.0001
.OP point found by inspection.

Date: Tue Sep 19 19:43:57 2017
Total elapsed time: 0.067 seconds.

tnom = 27
temp = 27
method = modified trap
totiter = 4272
traniter = 4272
tranpoints = 2137
accept = 1998
rejected = 139
matrix size = 4
fillins = 0
solver = Normal
Matrix Compiler1: off  [0.0]/0.1/0.1
Matrix Compiler2: off

